CRYSTAL
 PRIMVEC
   2.5082989800     0.0000000000     0.0000000000
   0.0000000000     2.5082989800     0.0000000000
   0.0000000000     0.0000000000     1.6870162760

 CONVVEC
   2.5082989800     0.0000000000     0.0000000000
   0.0000000000     2.5082989800     0.0000000000
   0.0000000000     0.0000000000     1.6870162760

 PRIMCOORD
           6           1
Sn1     0.0000000000   0.0000000000   0.0000000000
Sn2     2.3700000000   2.3700000000   1.5940000000
O       1.4495690000   1.4495690000   0.0000000000
O       3.2904310000   3.2904310000   0.0000000000
O       0.9204310000   3.8195690000   1.5940000000
O       3.8195690000   0.9204310000   1.5940000000
